@<TRIPOS>MOLECULE
KUJLIL
    56    60     1     0     0
SMALL
NO_CHARGES
****
Generated from the CSD

@<TRIPOS>ATOM
     1 Pd1      0.6626   0.9254   6.7617   Pd        1 RES1   0.0000
     2 I1      -0.1718   2.8195   5.1604   I         1 RES1   0.0000
     3 I2       1.6062  -1.0445   8.1780   I         1 RES1   0.0000
     4 N1       4.3478   2.5615   5.7139   N.ar      1 RES1   0.0000
     5 N2       4.3030   3.0160   7.0024   N.ar      1 RES1   0.0000
     6 N3      -1.3131   0.1696   6.8980   N.ar      1 RES1   0.0000
     7 C1       2.4659   1.7502   6.6411   C.ar      1 RES1   0.0000
     8 C2       3.2544   1.7977   5.4811   C.ar      1 RES1   0.0000
     9 C3       3.1470   2.5303   7.5764   C.ar      1 RES1   0.0000
    10 C4       3.0739   1.1301   4.1765   C.ar      1 RES1   0.0000
    11 C5       3.0308  -0.2537   4.1143   C.ar      1 RES1   0.0000
    12 H1       3.0748  -0.7625   4.9031   H         1 RES1   0.0000
    13 C6       2.9217  -0.8832   2.8901   C.ar      1 RES1   0.0000
    14 H2       2.9386  -1.8221   2.8439   H         1 RES1   0.0000
    15 C7       2.7895  -0.1492   1.7360   C.ar      1 RES1   0.0000
    16 H3       2.6918  -0.5834   0.9072   H         1 RES1   0.0000
    17 C8       2.8002   1.2346   1.7983   C.ar      1 RES1   0.0000
    18 H4       2.7057   1.7393   1.0115   H         1 RES1   0.0000
    19 C9       2.9491   1.8804   3.0245   C.ar      1 RES1   0.0000
    20 H5       2.9649   2.8193   3.0647   H         1 RES1   0.0000
    21 C10      2.7874   2.8708   8.9652   C.ar      1 RES1   0.0000
    22 C11      3.7604   3.0635   9.9506   C.ar      1 RES1   0.0000
    23 H6       4.6708   2.9482   9.7439   H         1 RES1   0.0000
    24 C12      3.3794   3.4216  11.2331   C.ar      1 RES1   0.0000
    25 H7       4.0353   3.5465  11.8954   H         1 RES1   0.0000
    26 C13      2.0510   3.5994  11.5482   C.ar      1 RES1   0.0000
    27 H8       1.8026   3.8734  12.4112   H         1 RES1   0.0000
    28 C14      1.0988   3.3728  10.5989   C.ar      1 RES1   0.0000
    29 H9       0.1910   3.4596  10.8257   H         1 RES1   0.0000
    30 C15      1.4460   3.0173   9.3084   C.ar      1 RES1   0.0000
    31 H10      0.7767   2.8749   8.6641   H         1 RES1   0.0000
    32 C16      5.4292   2.8980   4.8007   C.3       1 RES1   0.0000
    33 H11      5.3160   3.8097   4.4876   H         1 RES1   0.0000
    34 H12      5.4138   2.2915   4.0441   H         1 RES1   0.0000
    35 H13      6.2783   2.8193   5.2623   H         1 RES1   0.0000
    36 C17      5.1989   4.0702   7.4278   C.ar      1 RES1   0.0000
    37 C18      6.5002   3.7690   7.7469   C.ar      1 RES1   0.0000
    38 H14      6.8054   2.8803   7.7309   H         1 RES1   0.0000
    39 C19      7.3549   4.8041   8.0942   C.ar      1 RES1   0.0000
    40 H15      8.2554   4.6223   8.2908   H         1 RES1   0.0000
    41 C20      6.8887   6.0930   8.1503   C.ar      1 RES1   0.0000
    42 H16      7.4688   6.7904   8.3952   H         1 RES1   0.0000
    43 C21      5.5768   6.3698   7.8493   C.ar      1 RES1   0.0000
    44 H17      5.2630   7.2544   7.8995   H         1 RES1   0.0000
    45 C22      4.7106   5.3536   7.4700   C.ar      1 RES1   0.0000
    46 H18      3.8154   5.5381   7.2472   H         1 RES1   0.0000
    47 C23     -1.9848  -0.2089   5.8162   C.ar      1 RES1   0.0000
    48 H19     -1.5277  -0.2239   4.9954   H         1 RES1   0.0000
    49 C24     -3.3013  -0.5793   5.8263   C.ar      1 RES1   0.0000
    50 H20     -3.7302  -0.8520   5.0355   H         1 RES1   0.0000
    51 C25     -3.9856  -0.5454   7.0264   C.ar      1 RES1   0.0000
    52 H21     -4.8941  -0.7815   7.0666   H         1 RES1   0.0000
    53 C26     -3.3058  -0.1560   8.1644   C.ar      1 RES1   0.0000
    54 H22     -3.7472  -0.1153   8.9933   H         1 RES1   0.0000
    55 C27     -1.9699   0.1696   8.0661   C.ar      1 RES1   0.0000
    56 H23     -1.5024   0.4002   8.8468   H         1 RES1   0.0000
@<TRIPOS>BOND
     1     1     2    1
     2     3     1    1
     3     4     5   ar
     4     5     9   ar
     5     6     1    1
     6     7     1    1
     7     8     4   ar
     8     9     7   ar
     9    10     8    1
    10    11    10   ar
    11    12    11    1
    12    13    11   ar
    13    14    13    1
    14    15    13   ar
    15    16    15    1
    16    17    15   ar
    17    18    17    1
    18    19    10   ar
    19    20    19    1
    20    21     9    1
    21    22    21   ar
    22    23    22    1
    23    24    22   ar
    24    25    24    1
    25    26    24   ar
    26    27    26    1
    27    28    26   ar
    28    29    28    1
    29    30    21   ar
    30    31    30    1
    31    32     4    1
    32    33    32    1
    33    34    32    1
    34    35    32    1
    35    36     5    1
    36    37    36   ar
    37    38    37    1
    38    39    37   ar
    39    40    39    1
    40    41    39   ar
    41    42    41    1
    42    43    41   ar
    43    44    43    1
    44    45    36   ar
    45    46    45    1
    46    47     6   ar
    47    48    47    1
    48    49    47   ar
    49    50    49    1
    50    51    49   ar
    51    52    51    1
    52    53    51   ar
    53    54    53    1
    54    55     6   ar
    55    56    55    1
    56     7     8   ar
    57    17    19   ar
    58    28    30   ar
    59    43    45   ar
    60    53    55   ar
@<TRIPOS>SUBSTRUCTURE
     1 RES1        1 GROUP             0 ****  ****    0  
@<TRIPOS>CRYSIN
    9.5081   13.5672   20.1031   90.0000   93.2980   90.0000   231     1
